CM 
CE
GW	1	5	0.083	0	-3.750	1.133	0	-3.222	0.025
GW	2	5	0.083	0	-3.750	1.133	0	-4.278	0.025
GW	3	5	-0.083	0	-3.750	-1.133	0	-3.222	0.025
GW	4	5	-0.083	0	-3.750	-1.133	0	-4.278	0.025
GW	5	5	0.083	0	-1.250	1.133	0	-0.722	0.025
GW	6	5	0.083	0	-1.250	1.133	0	-1.778	0.025
GW	7	5	-0.083	0	-1.250	-1.133	0	-0.722	0.025
GW	8	5	-0.083	0	-1.250	-1.133	0	-1.778	0.025
GW	9	5	0.083	0	1.250	1.133	0	1.778	0.025
GW	10	5	0.083	0	1.250	1.133	0	0.722	0.025
GW	11	5	-0.083	0	1.250	-1.133	0	1.778	0.025
GW	12	5	-0.083	0	1.250	-1.133	0	0.722	0.025
GW	13	5	0.083	0	3.750	1.133	0	4.278	0.025
GW	14	5	0.083	0	3.750	1.133	0	3.222	0.025
GW	15	5	-0.083	0	3.750	-1.133	0	4.278	0.025
GW	16	5	-0.083	0	3.750	-1.133	0	3.222	0.025
GW	17	1	-0.083	0	-3.750	0.083	0	-3.750	0.025
GW	18	1	-0.083	0	-1.250	0.083	0	-1.250	0.025
GW	19	1	-0.083	0	1.250	0.083	0	1.250	0.025
GW	20	1	-0.083	0	3.750	0.083	0	3.750	0.025
GW	21	1	-0.083	0	0	0.083	0	0	0.025


GW	22	1	-2.5	1.25	5.0	-2.5	1.25	4.6	0.025
GW	23	1	-2.5	1.25	4.6	-2.5	1.25	4.2	0.025
GW	24	1	-2.5	1.25	4.2	-2.5	1.25	3.8	0.025
GW	25	1	-2.5	1.25	3.8	-2.5	1.25	3.4	0.025
GW	26	1	-2.5	1.25	3.4	-2.5	1.25	3.0	0.025
GW	27	1	-2.5	1.25	3.0	-2.5	1.25	2.6	0.025
GW	28	1	-2.5	1.25	2.6	-2.5	1.25	2.2	0.025
GW	29	1	-2.5	1.25	2.2	-2.5	1.25	1.8	0.025
GW	30	1	-2.5	1.25	1.8	-2.5	1.25	1.4	0.025
GW	31	1	-2.5	1.25	1.4	-2.5	1.25	1.0	0.025
GW	32	1	-2.5	1.25	1.0	-2.5	1.25	.6	0.025
GW	33	1	-2.5	1.25	.6	-2.5	1.25	.2	0.025
GW	34	1	-2.5	1.25	.2	-2.5	1.25	-.2	0.025
GW	35	1	-2.5	1.25	-.2	-2.5	1.25	-.6	0.025
GW	36	1	-2.5	1.25	-.6	-2.5	1.25	-1.0	0.025
GW	37	1	-2.5	1.25	-1.0	-2.5	1.25	-1.4	0.025
GW	38	1	-2.5	1.25	-1.4	-2.5	1.25	-1.8	0.025
GW	39	1	-2.5	1.25	-1.8	-2.5	1.25	-2.2	0.025
GW	40	1	-2.5	1.25	-2.2	-2.5	1.25	-2.6	0.025
GW	41	1	-2.5	1.25	-2.6	-2.5	1.25	-3.0	0.025
GW	42	1	-2.5	1.25	-3.0	-2.5	1.25	-3.4	0.025
GW	43	1	-2.5	1.25	-3.4	-2.5	1.25	-3.8	0.025
GW	44	1	-2.5	1.25	-3.8	-2.5	1.25	-4.2	0.025
GW	45	1	-2.5	1.25	-4.2	-2.5	1.25	-4.6	0.025
GW	46	1	-2.5	1.25	-4.6	-2.5	1.25	-5.0	0.025
GW	47	1	-2.167	1.25	5.0	-2.167	1.25	4.6	0.025
GW	48	1	-2.167	1.25	4.6	-2.167	1.25	4.2	0.025
GW	49	1	-2.167	1.25	4.2	-2.167	1.25	3.8	0.025
GW	50	1	-2.167	1.25	3.8	-2.167	1.25	3.4	0.025
GW	51	1	-2.167	1.25	3.4	-2.167	1.25	3.0	0.025
GW	52	1	-2.167	1.25	3.0	-2.167	1.25	2.6	0.025
GW	53	1	-2.167	1.25	2.6	-2.167	1.25	2.2	0.025
GW	54	1	-2.167	1.25	2.2	-2.167	1.25	1.8	0.025
GW	55	1	-2.167	1.25	1.8	-2.167	1.25	1.4	0.025
GW	56	1	-2.167	1.25	1.4	-2.167	1.25	1.0	0.025
GW	57	1	-2.167	1.25	1.0	-2.167	1.25	.6	0.025
GW	58	1	-2.167	1.25	.6	-2.167	1.25	.2	0.025
GW	59	1	-2.167	1.25	.2	-2.167	1.25	-.2	0.025
GW	60	1	-2.167	1.25	-.2	-2.167	1.25	-.6	0.025
GW	61	1	-2.167	1.25	-.6	-2.167	1.25	-1.0	0.025
GW	62	1	-2.167	1.25	-1.0	-2.167	1.25	-1.4	0.025
GW	63	1	-2.167	1.25	-1.4	-2.167	1.25	-1.8	0.025
GW	64	1	-2.167	1.25	-1.8	-2.167	1.25	-2.2	0.025
GW	65	1	-2.167	1.25	-2.2	-2.167	1.25	-2.6	0.025
GW	66	1	-2.167	1.25	-2.6	-2.167	1.25	-3.0	0.025
GW	67	1	-2.167	1.25	-3.0	-2.167	1.25	-3.4	0.025
GW	68	1	-2.167	1.25	-3.4	-2.167	1.25	-3.8	0.025
GW	69	1	-2.167	1.25	-3.8	-2.167	1.25	-4.2	0.025
GW	70	1	-2.167	1.25	-4.2	-2.167	1.25	-4.6	0.025
GW	71	1	-2.167	1.25	-4.6	-2.167	1.25	-5.0	0.025
GW	72	1	-1.833	1.25	5.0	-1.833	1.25	4.6	0.025
GW	73	1	-1.833	1.25	4.6	-1.833	1.25	4.2	0.025
GW	74	1	-1.833	1.25	4.2	-1.833	1.25	3.8	0.025
GW	75	1	-1.833	1.25	3.8	-1.833	1.25	3.4	0.025
GW	76	1	-1.833	1.25	3.4	-1.833	1.25	3.0	0.025
GW	77	1	-1.833	1.25	3.0	-1.833	1.25	2.6	0.025
GW	78	1	-1.833	1.25	2.6	-1.833	1.25	2.2	0.025
GW	79	1	-1.833	1.25	2.2	-1.833	1.25	1.8	0.025
GW	80	1	-1.833	1.25	1.8	-1.833	1.25	1.4	0.025
GW	81	1	-1.833	1.25	1.4	-1.833	1.25	1.0	0.025
GW	82	1	-1.833	1.25	1.0	-1.833	1.25	.6	0.025
GW	83	1	-1.833	1.25	.6	-1.833	1.25	.2	0.025
GW	84	1	-1.833	1.25	.2	-1.833	1.25	-.2	0.025
GW	85	1	-1.833	1.25	-.2	-1.833	1.25	-.6	0.025
GW	86	1	-1.833	1.25	-.6	-1.833	1.25	-1.0	0.025
GW	87	1	-1.833	1.25	-1.0	-1.833	1.25	-1.4	0.025
GW	88	1	-1.833	1.25	-1.4	-1.833	1.25	-1.8	0.025
GW	89	1	-1.833	1.25	-1.8	-1.833	1.25	-2.2	0.025
GW	90	1	-1.833	1.25	-2.2	-1.833	1.25	-2.6	0.025
GW	91	1	-1.833	1.25	-2.6	-1.833	1.25	-3.0	0.025
GW	92	1	-1.833	1.25	-3.0	-1.833	1.25	-3.4	0.025
GW	93	1	-1.833	1.25	-3.4	-1.833	1.25	-3.8	0.025
GW	94	1	-1.833	1.25	-3.8	-1.833	1.25	-4.2	0.025
GW	95	1	-1.833	1.25	-4.2	-1.833	1.25	-4.6	0.025
GW	96	1	-1.833	1.25	-4.6	-1.833	1.25	-5.0	0.025
GW	97	1	-1.5	1.25	5.0	-1.5	1.25	4.6	0.025
GW	98	1	-1.5	1.25	4.6	-1.5	1.25	4.2	0.025
GW	99	1	-1.5	1.25	4.2	-1.5	1.25	3.8	0.025
GW	100	1	-1.5	1.25	3.8	-1.5	1.25	3.4	0.025
GW	101	1	-1.5	1.25	3.4	-1.5	1.25	3.0	0.025
GW	102	1	-1.5	1.25	3.0	-1.5	1.25	2.6	0.025
GW	103	1	-1.5	1.25	2.6	-1.5	1.25	2.2	0.025
GW	104	1	-1.5	1.25	2.2	-1.5	1.25	1.8	0.025
GW	105	1	-1.5	1.25	1.8	-1.5	1.25	1.4	0.025
GW	106	1	-1.5	1.25	1.4	-1.5	1.25	1.0	0.025
GW	107	1	-1.5	1.25	1.0	-1.5	1.25	.6	0.025
GW	108	1	-1.5	1.25	.6	-1.5	1.25	.2	0.025
GW	109	1	-1.5	1.25	.2	-1.5	1.25	-.2	0.025
GW	110	1	-1.5	1.25	-.2	-1.5	1.25	-.6	0.025
GW	111	1	-1.5	1.25	-.6	-1.5	1.25	-1.0	0.025
GW	112	1	-1.5	1.25	-1.0	-1.5	1.25	-1.4	0.025
GW	113	1	-1.5	1.25	-1.4	-1.5	1.25	-1.8	0.025
GW	114	1	-1.5	1.25	-1.8	-1.5	1.25	-2.2	0.025
GW	115	1	-1.5	1.25	-2.2	-1.5	1.25	-2.6	0.025
GW	116	1	-1.5	1.25	-2.6	-1.5	1.25	-3.0	0.025
GW	117	1	-1.5	1.25	-3.0	-1.5	1.25	-3.4	0.025
GW	118	1	-1.5	1.25	-3.4	-1.5	1.25	-3.8	0.025
GW	119	1	-1.5	1.25	-3.8	-1.5	1.25	-4.2	0.025
GW	120	1	-1.5	1.25	-4.2	-1.5	1.25	-4.6	0.025
GW	121	1	-1.5	1.25	-4.6	-1.5	1.25	-5.0	0.025
GW	122	1	-1.167	1.25	5.0	-1.167	1.25	4.6	0.025
GW	123	1	-1.167	1.25	4.6	-1.167	1.25	4.2	0.025
GW	124	1	-1.167	1.25	4.2	-1.167	1.25	3.8	0.025
GW	125	1	-1.167	1.25	3.8	-1.167	1.25	3.4	0.025
GW	126	1	-1.167	1.25	3.4	-1.167	1.25	3.0	0.025
GW	127	1	-1.167	1.25	3.0	-1.167	1.25	2.6	0.025
GW	128	1	-1.167	1.25	2.6	-1.167	1.25	2.2	0.025
GW	129	1	-1.167	1.25	2.2	-1.167	1.25	1.8	0.025
GW	130	1	-1.167	1.25	1.8	-1.167	1.25	1.4	0.025
GW	131	1	-1.167	1.25	1.4	-1.167	1.25	1.0	0.025
GW	132	1	-1.167	1.25	1.0	-1.167	1.25	.6	0.025
GW	133	1	-1.167	1.25	.6	-1.167	1.25	.2	0.025
GW	134	1	-1.167	1.25	.2	-1.167	1.25	-.2	0.025
GW	135	1	-1.167	1.25	-.2	-1.167	1.25	-.6	0.025
GW	136	1	-1.167	1.25	-.6	-1.167	1.25	-1.0	0.025
GW	137	1	-1.167	1.25	-1.0	-1.167	1.25	-1.4	0.025
GW	138	1	-1.167	1.25	-1.4	-1.167	1.25	-1.8	0.025
GW	139	1	-1.167	1.25	-1.8	-1.167	1.25	-2.2	0.025
GW	140	1	-1.167	1.25	-2.2	-1.167	1.25	-2.6	0.025
GW	141	1	-1.167	1.25	-2.6	-1.167	1.25	-3.0	0.025
GW	142	1	-1.167	1.25	-3.0	-1.167	1.25	-3.4	0.025
GW	143	1	-1.167	1.25	-3.4	-1.167	1.25	-3.8	0.025
GW	144	1	-1.167	1.25	-3.8	-1.167	1.25	-4.2	0.025
GW	145	1	-1.167	1.25	-4.2	-1.167	1.25	-4.6	0.025
GW	146	1	-1.167	1.25	-4.6	-1.167	1.25	-5.0	0.025
GW	147	1	-.833333	1.25	5.0	-.833333	1.25	4.6	0.025
GW	148	1	-.833333	1.25	4.6	-.833333	1.25	4.2	0.025
GW	149	1	-.833333	1.25	4.2	-.833333	1.25	3.8	0.025
GW	150	1	-.833333	1.25	3.8	-.833333	1.25	3.4	0.025
GW	151	1	-.833333	1.25	3.4	-.833333	1.25	3.0	0.025
GW	152	1	-.833333	1.25	3.0	-.833333	1.25	2.6	0.025
GW	153	1	-.833333	1.25	2.6	-.833333	1.25	2.2	0.025
GW	154	1	-.833333	1.25	2.2	-.833333	1.25	1.8	0.025
GW	155	1	-.833333	1.25	1.8	-.833333	1.25	1.4	0.025
GW	156	1	-.833333	1.25	1.4	-.833333	1.25	1.0	0.025
GW	157	1	-.833333	1.25	1.0	-.833333	1.25	.6	0.025
GW	158	1	-.833333	1.25	.6	-.833333	1.25	.2	0.025
GW	159	1	-.833333	1.25	.2	-.833333	1.25	-.2	0.025
GW	160	1	-.833333	1.25	-.2	-.833333	1.25	-.6	0.025
GW	161	1	-.833333	1.25	-.6	-.833333	1.25	-1.0	0.025
GW	162	1	-.833333	1.25	-1.0	-.833333	1.25	-1.4	0.025
GW	163	1	-.833333	1.25	-1.4	-.833333	1.25	-1.8	0.025
GW	164	1	-.833333	1.25	-1.8	-.833333	1.25	-2.2	0.025
GW	165	1	-.833333	1.25	-2.2	-.833333	1.25	-2.6	0.025
GW	166	1	-.833333	1.25	-2.6	-.833333	1.25	-3.0	0.025
GW	167	1	-.833333	1.25	-3.0	-.833333	1.25	-3.4	0.025
GW	168	1	-.833333	1.25	-3.4	-.833333	1.25	-3.8	0.025
GW	169	1	-.833333	1.25	-3.8	-.833333	1.25	-4.2	0.025
GW	170	1	-.833333	1.25	-4.2	-.833333	1.25	-4.6	0.025
GW	171	1	-.833333	1.25	-4.6	-.833333	1.25	-5.0	0.025
GW	172	1	-.5	1.25	5.0	-.5	1.25	4.6	0.025
GW	173	1	-.5	1.25	4.6	-.5	1.25	4.2	0.025
GW	174	1	-.5	1.25	4.2	-.5	1.25	3.8	0.025
GW	175	1	-.5	1.25	3.8	-.5	1.25	3.4	0.025
GW	176	1	-.5	1.25	3.4	-.5	1.25	3.0	0.025
GW	177	1	-.5	1.25	3.0	-.5	1.25	2.6	0.025
GW	178	1	-.5	1.25	2.6	-.5	1.25	2.2	0.025
GW	179	1	-.5	1.25	2.2	-.5	1.25	1.8	0.025
GW	180	1	-.5	1.25	1.8	-.5	1.25	1.4	0.025
GW	181	1	-.5	1.25	1.4	-.5	1.25	1.0	0.025
GW	182	1	-.5	1.25	1.0	-.5	1.25	.6	0.025
GW	183	1	-.5	1.25	.6	-.5	1.25	.2	0.025
GW	184	1	-.5	1.25	.2	-.5	1.25	-.2	0.025
GW	185	1	-.5	1.25	-.2	-.5	1.25	-.6	0.025
GW	186	1	-.5	1.25	-.6	-.5	1.25	-1.0	0.025
GW	187	1	-.5	1.25	-1.0	-.5	1.25	-1.4	0.025
GW	188	1	-.5	1.25	-1.4	-.5	1.25	-1.8	0.025
GW	189	1	-.5	1.25	-1.8	-.5	1.25	-2.2	0.025
GW	190	1	-.5	1.25	-2.2	-.5	1.25	-2.6	0.025
GW	191	1	-.5	1.25	-2.6	-.5	1.25	-3.0	0.025
GW	192	1	-.5	1.25	-3.0	-.5	1.25	-3.4	0.025
GW	193	1	-.5	1.25	-3.4	-.5	1.25	-3.8	0.025
GW	194	1	-.5	1.25	-3.8	-.5	1.25	-4.2	0.025
GW	195	1	-.5	1.25	-4.2	-.5	1.25	-4.6	0.025
GW	196	1	-.5	1.25	-4.6	-.5	1.25	-5.0	0.025
GW	197	1	-.166667	1.25	5.0	-.166667	1.25	4.6	0.025
GW	198	1	-.166667	1.25	4.6	-.166667	1.25	4.2	0.025
GW	199	1	-.166667	1.25	4.2	-.166667	1.25	3.8	0.025
GW	200	1	-.166667	1.25	3.8	-.166667	1.25	3.4	0.025
GW	201	1	-.166667	1.25	3.4	-.166667	1.25	3.0	0.025
GW	202	1	-.166667	1.25	3.0	-.166667	1.25	2.6	0.025
GW	203	1	-.166667	1.25	2.6	-.166667	1.25	2.2	0.025
GW	204	1	-.166667	1.25	2.2	-.166667	1.25	1.8	0.025
GW	205	1	-.166667	1.25	1.8	-.166667	1.25	1.4	0.025
GW	206	1	-.166667	1.25	1.4	-.166667	1.25	1.0	0.025
GW	207	1	-.166667	1.25	1.0	-.166667	1.25	.6	0.025
GW	208	1	-.166667	1.25	.6	-.166667	1.25	.2	0.025
GW	209	1	-.166667	1.25	.2	-.166667	1.25	-.2	0.025
GW	210	1	-.166667	1.25	-.2	-.166667	1.25	-.6	0.025
GW	211	1	-.166667	1.25	-.6	-.166667	1.25	-1.0	0.025
GW	212	1	-.166667	1.25	-1.0	-.166667	1.25	-1.4	0.025
GW	213	1	-.166667	1.25	-1.4	-.166667	1.25	-1.8	0.025
GW	214	1	-.166667	1.25	-1.8	-.166667	1.25	-2.2	0.025
GW	215	1	-.166667	1.25	-2.2	-.166667	1.25	-2.6	0.025
GW	216	1	-.166667	1.25	-2.6	-.166667	1.25	-3.0	0.025
GW	217	1	-.166667	1.25	-3.0	-.166667	1.25	-3.4	0.025
GW	218	1	-.166667	1.25	-3.4	-.166667	1.25	-3.8	0.025
GW	219	1	-.166667	1.25	-3.8	-.166667	1.25	-4.2	0.025
GW	220	1	-.166667	1.25	-4.2	-.166667	1.25	-4.6	0.025
GW	221	1	-.166667	1.25	-4.6	-.166667	1.25	-5.0	0.025
GW	222	1	.166667	1.25	5.0	.166667	1.25	4.6	0.025
GW	223	1	.166667	1.25	4.6	.166667	1.25	4.2	0.025
GW	224	1	.166667	1.25	4.2	.166667	1.25	3.8	0.025
GW	225	1	.166667	1.25	3.8	.166667	1.25	3.4	0.025
GW	226	1	.166667	1.25	3.4	.166667	1.25	3.0	0.025
GW	227	1	.166667	1.25	3.0	.166667	1.25	2.6	0.025
GW	228	1	.166667	1.25	2.6	.166667	1.25	2.2	0.025
GW	229	1	.166667	1.25	2.2	.166667	1.25	1.8	0.025
GW	230	1	.166667	1.25	1.8	.166667	1.25	1.4	0.025
GW	231	1	.166667	1.25	1.4	.166667	1.25	1.0	0.025
GW	232	1	.166667	1.25	1.0	.166667	1.25	.6	0.025
GW	233	1	.166667	1.25	.6	.166667	1.25	.2	0.025
GW	234	1	.166667	1.25	.2	.166667	1.25	-.2	0.025
GW	235	1	.166667	1.25	-.2	.166667	1.25	-.6	0.025
GW	236	1	.166667	1.25	-.6	.166667	1.25	-1.0	0.025
GW	237	1	.166667	1.25	-1.0	.166667	1.25	-1.4	0.025
GW	238	1	.166667	1.25	-1.4	.166667	1.25	-1.8	0.025
GW	239	1	.166667	1.25	-1.8	.166667	1.25	-2.2	0.025
GW	240	1	.166667	1.25	-2.2	.166667	1.25	-2.6	0.025
GW	241	1	.166667	1.25	-2.6	.166667	1.25	-3.0	0.025
GW	242	1	.166667	1.25	-3.0	.166667	1.25	-3.4	0.025
GW	243	1	.166667	1.25	-3.4	.166667	1.25	-3.8	0.025
GW	244	1	.166667	1.25	-3.8	.166667	1.25	-4.2	0.025
GW	245	1	.166667	1.25	-4.2	.166667	1.25	-4.6	0.025
GW	246	1	.166667	1.25	-4.6	.166667	1.25	-5.0	0.025
GW	247	1	.5	1.25	5.0	.5	1.25	4.6	0.025
GW	248	1	.5	1.25	4.6	.5	1.25	4.2	0.025
GW	249	1	.5	1.25	4.2	.5	1.25	3.8	0.025
GW	250	1	.5	1.25	3.8	.5	1.25	3.4	0.025
GW	251	1	.5	1.25	3.4	.5	1.25	3.0	0.025
GW	252	1	.5	1.25	3.0	.5	1.25	2.6	0.025
GW	253	1	.5	1.25	2.6	.5	1.25	2.2	0.025
GW	254	1	.5	1.25	2.2	.5	1.25	1.8	0.025
GW	255	1	.5	1.25	1.8	.5	1.25	1.4	0.025
GW	256	1	.5	1.25	1.4	.5	1.25	1.0	0.025
GW	257	1	.5	1.25	1.0	.5	1.25	.6	0.025
GW	258	1	.5	1.25	.6	.5	1.25	.2	0.025
GW	259	1	.5	1.25	.2	.5	1.25	-.2	0.025
GW	260	1	.5	1.25	-.2	.5	1.25	-.6	0.025
GW	261	1	.5	1.25	-.6	.5	1.25	-1.0	0.025
GW	262	1	.5	1.25	-1.0	.5	1.25	-1.4	0.025
GW	263	1	.5	1.25	-1.4	.5	1.25	-1.8	0.025
GW	264	1	.5	1.25	-1.8	.5	1.25	-2.2	0.025
GW	265	1	.5	1.25	-2.2	.5	1.25	-2.6	0.025
GW	266	1	.5	1.25	-2.6	.5	1.25	-3.0	0.025
GW	267	1	.5	1.25	-3.0	.5	1.25	-3.4	0.025
GW	268	1	.5	1.25	-3.4	.5	1.25	-3.8	0.025
GW	269	1	.5	1.25	-3.8	.5	1.25	-4.2	0.025
GW	270	1	.5	1.25	-4.2	.5	1.25	-4.6	0.025
GW	271	1	.5	1.25	-4.6	.5	1.25	-5.0	0.025
GW	272	1	.833333	1.25	5.0	.833333	1.25	4.6	0.025
GW	273	1	.833333	1.25	4.6	.833333	1.25	4.2	0.025
GW	274	1	.833333	1.25	4.2	.833333	1.25	3.8	0.025
GW	275	1	.833333	1.25	3.8	.833333	1.25	3.4	0.025
GW	276	1	.833333	1.25	3.4	.833333	1.25	3.0	0.025
GW	277	1	.833333	1.25	3.0	.833333	1.25	2.6	0.025
GW	278	1	.833333	1.25	2.6	.833333	1.25	2.2	0.025
GW	279	1	.833333	1.25	2.2	.833333	1.25	1.8	0.025
GW	280	1	.833333	1.25	1.8	.833333	1.25	1.4	0.025
GW	281	1	.833333	1.25	1.4	.833333	1.25	1.0	0.025
GW	282	1	.833333	1.25	1.0	.833333	1.25	.6	0.025
GW	283	1	.833333	1.25	.6	.833333	1.25	.2	0.025
GW	284	1	.833333	1.25	.2	.833333	1.25	-.2	0.025
GW	285	1	.833333	1.25	-.2	.833333	1.25	-.6	0.025
GW	286	1	.833333	1.25	-.6	.833333	1.25	-1.0	0.025
GW	287	1	.833333	1.25	-1.0	.833333	1.25	-1.4	0.025
GW	288	1	.833333	1.25	-1.4	.833333	1.25	-1.8	0.025
GW	289	1	.833333	1.25	-1.8	.833333	1.25	-2.2	0.025
GW	290	1	.833333	1.25	-2.2	.833333	1.25	-2.6	0.025
GW	291	1	.833333	1.25	-2.6	.833333	1.25	-3.0	0.025
GW	292	1	.833333	1.25	-3.0	.833333	1.25	-3.4	0.025
GW	293	1	.833333	1.25	-3.4	.833333	1.25	-3.8	0.025
GW	294	1	.833333	1.25	-3.8	.833333	1.25	-4.2	0.025
GW	295	1	.833333	1.25	-4.2	.833333	1.25	-4.6	0.025
GW	296	1	.833333	1.25	-4.6	.833333	1.25	-5.0	0.025
GW	297	1	1.167	1.25	5.0	1.167	1.25	4.6	0.025
GW	298	1	1.167	1.25	4.6	1.167	1.25	4.2	0.025
GW	299	1	1.167	1.25	4.2	1.167	1.25	3.8	0.025
GW	300	1	1.167	1.25	3.8	1.167	1.25	3.4	0.025
GW	301	1	1.167	1.25	3.4	1.167	1.25	3.0	0.025
GW	302	1	1.167	1.25	3.0	1.167	1.25	2.6	0.025
GW	303	1	1.167	1.25	2.6	1.167	1.25	2.2	0.025
GW	304	1	1.167	1.25	2.2	1.167	1.25	1.8	0.025
GW	305	1	1.167	1.25	1.8	1.167	1.25	1.4	0.025
GW	306	1	1.167	1.25	1.4	1.167	1.25	1.0	0.025
GW	307	1	1.167	1.25	1.0	1.167	1.25	.6	0.025
GW	308	1	1.167	1.25	.6	1.167	1.25	.2	0.025
GW	309	1	1.167	1.25	.2	1.167	1.25	-.2	0.025
GW	310	1	1.167	1.25	-.2	1.167	1.25	-.6	0.025
GW	311	1	1.167	1.25	-.6	1.167	1.25	-1.0	0.025
GW	312	1	1.167	1.25	-1.0	1.167	1.25	-1.4	0.025
GW	313	1	1.167	1.25	-1.4	1.167	1.25	-1.8	0.025
GW	314	1	1.167	1.25	-1.8	1.167	1.25	-2.2	0.025
GW	315	1	1.167	1.25	-2.2	1.167	1.25	-2.6	0.025
GW	316	1	1.167	1.25	-2.6	1.167	1.25	-3.0	0.025
GW	317	1	1.167	1.25	-3.0	1.167	1.25	-3.4	0.025
GW	318	1	1.167	1.25	-3.4	1.167	1.25	-3.8	0.025
GW	319	1	1.167	1.25	-3.8	1.167	1.25	-4.2	0.025
GW	320	1	1.167	1.25	-4.2	1.167	1.25	-4.6	0.025
GW	321	1	1.167	1.25	-4.6	1.167	1.25	-5.0	0.025
GW	322	1	1.5	1.25	5.0	1.5	1.25	4.6	0.025
GW	323	1	1.5	1.25	4.6	1.5	1.25	4.2	0.025
GW	324	1	1.5	1.25	4.2	1.5	1.25	3.8	0.025
GW	325	1	1.5	1.25	3.8	1.5	1.25	3.4	0.025
GW	326	1	1.5	1.25	3.4	1.5	1.25	3.0	0.025
GW	327	1	1.5	1.25	3.0	1.5	1.25	2.6	0.025
GW	328	1	1.5	1.25	2.6	1.5	1.25	2.2	0.025
GW	329	1	1.5	1.25	2.2	1.5	1.25	1.8	0.025
GW	330	1	1.5	1.25	1.8	1.5	1.25	1.4	0.025
GW	331	1	1.5	1.25	1.4	1.5	1.25	1.0	0.025
GW	332	1	1.5	1.25	1.0	1.5	1.25	.6	0.025
GW	333	1	1.5	1.25	.6	1.5	1.25	.2	0.025
GW	334	1	1.5	1.25	.2	1.5	1.25	-.2	0.025
GW	335	1	1.5	1.25	-.2	1.5	1.25	-.6	0.025
GW	336	1	1.5	1.25	-.6	1.5	1.25	-1.0	0.025
GW	337	1	1.5	1.25	-1.0	1.5	1.25	-1.4	0.025
GW	338	1	1.5	1.25	-1.4	1.5	1.25	-1.8	0.025
GW	339	1	1.5	1.25	-1.8	1.5	1.25	-2.2	0.025
GW	340	1	1.5	1.25	-2.2	1.5	1.25	-2.6	0.025
GW	341	1	1.5	1.25	-2.6	1.5	1.25	-3.0	0.025
GW	342	1	1.5	1.25	-3.0	1.5	1.25	-3.4	0.025
GW	343	1	1.5	1.25	-3.4	1.5	1.25	-3.8	0.025
GW	344	1	1.5	1.25	-3.8	1.5	1.25	-4.2	0.025
GW	345	1	1.5	1.25	-4.2	1.5	1.25	-4.6	0.025
GW	346	1	1.5	1.25	-4.6	1.5	1.25	-5.0	0.025
GW	347	1	1.833	1.25	5.0	1.833	1.25	4.6	0.025
GW	348	1	1.833	1.25	4.6	1.833	1.25	4.2	0.025
GW	349	1	1.833	1.25	4.2	1.833	1.25	3.8	0.025
GW	350	1	1.833	1.25	3.8	1.833	1.25	3.4	0.025
GW	351	1	1.833	1.25	3.4	1.833	1.25	3.0	0.025
GW	352	1	1.833	1.25	3.0	1.833	1.25	2.6	0.025
GW	353	1	1.833	1.25	2.6	1.833	1.25	2.2	0.025
GW	354	1	1.833	1.25	2.2	1.833	1.25	1.8	0.025
GW	355	1	1.833	1.25	1.8	1.833	1.25	1.4	0.025
GW	356	1	1.833	1.25	1.4	1.833	1.25	1.0	0.025
GW	357	1	1.833	1.25	1.0	1.833	1.25	.6	0.025
GW	358	1	1.833	1.25	.6	1.833	1.25	.2	0.025
GW	359	1	1.833	1.25	.2	1.833	1.25	-.2	0.025
GW	360	1	1.833	1.25	-.2	1.833	1.25	-.6	0.025
GW	361	1	1.833	1.25	-.6	1.833	1.25	-1.0	0.025
GW	362	1	1.833	1.25	-1.0	1.833	1.25	-1.4	0.025
GW	363	1	1.833	1.25	-1.4	1.833	1.25	-1.8	0.025
GW	364	1	1.833	1.25	-1.8	1.833	1.25	-2.2	0.025
GW	365	1	1.833	1.25	-2.2	1.833	1.25	-2.6	0.025
GW	366	1	1.833	1.25	-2.6	1.833	1.25	-3.0	0.025
GW	367	1	1.833	1.25	-3.0	1.833	1.25	-3.4	0.025
GW	368	1	1.833	1.25	-3.4	1.833	1.25	-3.8	0.025
GW	369	1	1.833	1.25	-3.8	1.833	1.25	-4.2	0.025
GW	370	1	1.833	1.25	-4.2	1.833	1.25	-4.6	0.025
GW	371	1	1.833	1.25	-4.6	1.833	1.25	-5.0	0.025
GW	372	1	2.167	1.25	5.0	2.167	1.25	4.6	0.025
GW	373	1	2.167	1.25	4.6	2.167	1.25	4.2	0.025
GW	374	1	2.167	1.25	4.2	2.167	1.25	3.8	0.025
GW	375	1	2.167	1.25	3.8	2.167	1.25	3.4	0.025
GW	376	1	2.167	1.25	3.4	2.167	1.25	3.0	0.025
GW	377	1	2.167	1.25	3.0	2.167	1.25	2.6	0.025
GW	378	1	2.167	1.25	2.6	2.167	1.25	2.2	0.025
GW	379	1	2.167	1.25	2.2	2.167	1.25	1.8	0.025
GW	380	1	2.167	1.25	1.8	2.167	1.25	1.4	0.025
GW	381	1	2.167	1.25	1.4	2.167	1.25	1.0	0.025
GW	382	1	2.167	1.25	1.0	2.167	1.25	.6	0.025
GW	383	1	2.167	1.25	.6	2.167	1.25	.2	0.025
GW	384	1	2.167	1.25	.2	2.167	1.25	-.2	0.025
GW	385	1	2.167	1.25	-.2	2.167	1.25	-.6	0.025
GW	386	1	2.167	1.25	-.6	2.167	1.25	-1.0	0.025
GW	387	1	2.167	1.25	-1.0	2.167	1.25	-1.4	0.025
GW	388	1	2.167	1.25	-1.4	2.167	1.25	-1.8	0.025
GW	389	1	2.167	1.25	-1.8	2.167	1.25	-2.2	0.025
GW	390	1	2.167	1.25	-2.2	2.167	1.25	-2.6	0.025
GW	391	1	2.167	1.25	-2.6	2.167	1.25	-3.0	0.025
GW	392	1	2.167	1.25	-3.0	2.167	1.25	-3.4	0.025
GW	393	1	2.167	1.25	-3.4	2.167	1.25	-3.8	0.025
GW	394	1	2.167	1.25	-3.8	2.167	1.25	-4.2	0.025
GW	395	1	2.167	1.25	-4.2	2.167	1.25	-4.6	0.025
GW	396	1	2.167	1.25	-4.6	2.167	1.25	-5.0	0.025
GW	397	1	2.5	1.25	5.0	2.5	1.25	4.6	0.025
GW	398	1	2.5	1.25	4.6	2.5	1.25	4.2	0.025
GW	399	1	2.5	1.25	4.2	2.5	1.25	3.8	0.025
GW	400	1	2.5	1.25	3.8	2.5	1.25	3.4	0.025
GW	401	1	2.5	1.25	3.4	2.5	1.25	3.0	0.025
GW	402	1	2.5	1.25	3.0	2.5	1.25	2.6	0.025
GW	403	1	2.5	1.25	2.6	2.5	1.25	2.2	0.025
GW	404	1	2.5	1.25	2.2	2.5	1.25	1.8	0.025
GW	405	1	2.5	1.25	1.8	2.5	1.25	1.4	0.025
GW	406	1	2.5	1.25	1.4	2.5	1.25	1.0	0.025
GW	407	1	2.5	1.25	1.0	2.5	1.25	.6	0.025
GW	408	1	2.5	1.25	.6	2.5	1.25	.2	0.025
GW	409	1	2.5	1.25	.2	2.5	1.25	-.2	0.025
GW	410	1	2.5	1.25	-.2	2.5	1.25	-.6	0.025
GW	411	1	2.5	1.25	-.6	2.5	1.25	-1.0	0.025
GW	412	1	2.5	1.25	-1.0	2.5	1.25	-1.4	0.025
GW	413	1	2.5	1.25	-1.4	2.5	1.25	-1.8	0.025
GW	414	1	2.5	1.25	-1.8	2.5	1.25	-2.2	0.025
GW	415	1	2.5	1.25	-2.2	2.5	1.25	-2.6	0.025
GW	416	1	2.5	1.25	-2.6	2.5	1.25	-3.0	0.025
GW	417	1	2.5	1.25	-3.0	2.5	1.25	-3.4	0.025
GW	418	1	2.5	1.25	-3.4	2.5	1.25	-3.8	0.025
GW	419	1	2.5	1.25	-3.8	2.5	1.25	-4.2	0.025
GW	420	1	2.5	1.25	-4.2	2.5	1.25	-4.6	0.025
GW	421	1	2.5	1.25	-4.6	2.5	1.25	-5.0	0.025
GW	422	1	-2.5	1.25	5.0	-2.167	1.25	5.0	0.025
GW	423	1	-2.167	1.25	5.0	-1.833	1.25	5.0	0.025
GW	424	1	-1.833	1.25	5.0	-1.5	1.25	5.0	0.025
GW	425	1	-1.5	1.25	5.0	-1.167	1.25	5.0	0.025
GW	426	1	-1.167	1.25	5.0	-.833333	1.25	5.0	0.025
GW	427	1	-.833333	1.25	5.0	-.5	1.25	5.0	0.025
GW	428	1	-.5	1.25	5.0	-.166667	1.25	5.0	0.025
GW	429	1	-.166667	1.25	5.0	.166667	1.25	5.0	0.025
GW	430	1	.166667	1.25	5.0	.5	1.25	5.0	0.025
GW	431	1	.5	1.25	5.0	.833333	1.25	5.0	0.025
GW	432	1	.833333	1.25	5.0	1.167	1.25	5.0	0.025
GW	433	1	1.167	1.25	5.0	1.5	1.25	5.0	0.025
GW	434	1	1.5	1.25	5.0	1.833	1.25	5.0	0.025
GW	435	1	1.833	1.25	5.0	2.167	1.25	5.0	0.025
GW	436	1	2.167	1.25	5.0	2.5	1.25	5.0	0.025
GW	437	1	-2.5	1.25	4.6	-2.167	1.25	4.6	0.025
GW	438	1	-2.167	1.25	4.6	-1.833	1.25	4.6	0.025
GW	439	1	-1.833	1.25	4.6	-1.5	1.25	4.6	0.025
GW	440	1	-1.5	1.25	4.6	-1.167	1.25	4.6	0.025
GW	441	1	-1.167	1.25	4.6	-.833333	1.25	4.6	0.025
GW	442	1	-.833333	1.25	4.6	-.5	1.25	4.6	0.025
GW	443	1	-.5	1.25	4.6	-.166667	1.25	4.6	0.025
GW	444	1	-.166667	1.25	4.6	.166667	1.25	4.6	0.025
GW	445	1	.166667	1.25	4.6	.5	1.25	4.6	0.025
GW	446	1	.5	1.25	4.6	.833333	1.25	4.6	0.025
GW	447	1	.833333	1.25	4.6	1.167	1.25	4.6	0.025
GW	448	1	1.167	1.25	4.6	1.5	1.25	4.6	0.025
GW	449	1	1.5	1.25	4.6	1.833	1.25	4.6	0.025
GW	450	1	1.833	1.25	4.6	2.167	1.25	4.6	0.025
GW	451	1	2.167	1.25	4.6	2.5	1.25	4.6	0.025
GW	452	1	-2.5	1.25	4.2	-2.167	1.25	4.2	0.025
GW	453	1	-2.167	1.25	4.2	-1.833	1.25	4.2	0.025
GW	454	1	-1.833	1.25	4.2	-1.5	1.25	4.2	0.025
GW	455	1	-1.5	1.25	4.2	-1.167	1.25	4.2	0.025
GW	456	1	-1.167	1.25	4.2	-.833333	1.25	4.2	0.025
GW	457	1	-.833333	1.25	4.2	-.5	1.25	4.2	0.025
GW	458	1	-.5	1.25	4.2	-.166667	1.25	4.2	0.025
GW	459	1	-.166667	1.25	4.2	.166667	1.25	4.2	0.025
GW	460	1	.166667	1.25	4.2	.5	1.25	4.2	0.025
GW	461	1	.5	1.25	4.2	.833333	1.25	4.2	0.025
GW	462	1	.833333	1.25	4.2	1.167	1.25	4.2	0.025
GW	463	1	1.167	1.25	4.2	1.5	1.25	4.2	0.025
GW	464	1	1.5	1.25	4.2	1.833	1.25	4.2	0.025
GW	465	1	1.833	1.25	4.2	2.167	1.25	4.2	0.025
GW	466	1	2.167	1.25	4.2	2.5	1.25	4.2	0.025
GW	467	1	-2.5	1.25	3.8	-2.167	1.25	3.8	0.025
GW	468	1	-2.167	1.25	3.8	-1.833	1.25	3.8	0.025
GW	469	1	-1.833	1.25	3.8	-1.5	1.25	3.8	0.025
GW	470	1	-1.5	1.25	3.8	-1.167	1.25	3.8	0.025
GW	471	1	-1.167	1.25	3.8	-.833333	1.25	3.8	0.025
GW	472	1	-.833333	1.25	3.8	-.5	1.25	3.8	0.025
GW	473	1	-.5	1.25	3.8	-.166667	1.25	3.8	0.025
GW	474	1	-.166667	1.25	3.8	.166667	1.25	3.8	0.025
GW	475	1	.166667	1.25	3.8	.5	1.25	3.8	0.025
GW	476	1	.5	1.25	3.8	.833333	1.25	3.8	0.025
GW	477	1	.833333	1.25	3.8	1.167	1.25	3.8	0.025
GW	478	1	1.167	1.25	3.8	1.5	1.25	3.8	0.025
GW	479	1	1.5	1.25	3.8	1.833	1.25	3.8	0.025
GW	480	1	1.833	1.25	3.8	2.167	1.25	3.8	0.025
GW	481	1	2.167	1.25	3.8	2.5	1.25	3.8	0.025
GW	482	1	-2.5	1.25	3.4	-2.167	1.25	3.4	0.025
GW	483	1	-2.167	1.25	3.4	-1.833	1.25	3.4	0.025
GW	484	1	-1.833	1.25	3.4	-1.5	1.25	3.4	0.025
GW	485	1	-1.5	1.25	3.4	-1.167	1.25	3.4	0.025
GW	486	1	-1.167	1.25	3.4	-.833333	1.25	3.4	0.025
GW	487	1	-.833333	1.25	3.4	-.5	1.25	3.4	0.025
GW	488	1	-.5	1.25	3.4	-.166667	1.25	3.4	0.025
GW	489	1	-.166667	1.25	3.4	.166667	1.25	3.4	0.025
GW	490	1	.166667	1.25	3.4	.5	1.25	3.4	0.025
GW	491	1	.5	1.25	3.4	.833333	1.25	3.4	0.025
GW	492	1	.833333	1.25	3.4	1.167	1.25	3.4	0.025
GW	493	1	1.167	1.25	3.4	1.5	1.25	3.4	0.025
GW	494	1	1.5	1.25	3.4	1.833	1.25	3.4	0.025
GW	495	1	1.833	1.25	3.4	2.167	1.25	3.4	0.025
GW	496	1	2.167	1.25	3.4	2.5	1.25	3.4	0.025
GW	497	1	-2.5	1.25	3.0	-2.167	1.25	3.0	0.025
GW	498	1	-2.167	1.25	3.0	-1.833	1.25	3.0	0.025
GW	499	1	-1.833	1.25	3.0	-1.5	1.25	3.0	0.025
GW	500	1	-1.5	1.25	3.0	-1.167	1.25	3.0	0.025
GW	501	1	-1.167	1.25	3.0	-.833333	1.25	3.0	0.025
GW	502	1	-.833333	1.25	3.0	-.5	1.25	3.0	0.025
GW	503	1	-.5	1.25	3.0	-.166667	1.25	3.0	0.025
GW	504	1	-.166667	1.25	3.0	.166667	1.25	3.0	0.025
GW	505	1	.166667	1.25	3.0	.5	1.25	3.0	0.025
GW	506	1	.5	1.25	3.0	.833333	1.25	3.0	0.025
GW	507	1	.833333	1.25	3.0	1.167	1.25	3.0	0.025
GW	508	1	1.167	1.25	3.0	1.5	1.25	3.0	0.025
GW	509	1	1.5	1.25	3.0	1.833	1.25	3.0	0.025
GW	510	1	1.833	1.25	3.0	2.167	1.25	3.0	0.025
GW	511	1	2.167	1.25	3.0	2.5	1.25	3.0	0.025
GW	512	1	-2.5	1.25	2.6	-2.167	1.25	2.6	0.025
GW	513	1	-2.167	1.25	2.6	-1.833	1.25	2.6	0.025
GW	514	1	-1.833	1.25	2.6	-1.5	1.25	2.6	0.025
GW	515	1	-1.5	1.25	2.6	-1.167	1.25	2.6	0.025
GW	516	1	-1.167	1.25	2.6	-.833333	1.25	2.6	0.025
GW	517	1	-.833333	1.25	2.6	-.5	1.25	2.6	0.025
GW	518	1	-.5	1.25	2.6	-.166667	1.25	2.6	0.025
GW	519	1	-.166667	1.25	2.6	.166667	1.25	2.6	0.025
GW	520	1	.166667	1.25	2.6	.5	1.25	2.6	0.025
GW	521	1	.5	1.25	2.6	.833333	1.25	2.6	0.025
GW	522	1	.833333	1.25	2.6	1.167	1.25	2.6	0.025
GW	523	1	1.167	1.25	2.6	1.5	1.25	2.6	0.025
GW	524	1	1.5	1.25	2.6	1.833	1.25	2.6	0.025
GW	525	1	1.833	1.25	2.6	2.167	1.25	2.6	0.025
GW	526	1	2.167	1.25	2.6	2.5	1.25	2.6	0.025
GW	527	1	-2.5	1.25	2.2	-2.167	1.25	2.2	0.025
GW	528	1	-2.167	1.25	2.2	-1.833	1.25	2.2	0.025
GW	529	1	-1.833	1.25	2.2	-1.5	1.25	2.2	0.025
GW	530	1	-1.5	1.25	2.2	-1.167	1.25	2.2	0.025
GW	531	1	-1.167	1.25	2.2	-.833333	1.25	2.2	0.025
GW	532	1	-.833333	1.25	2.2	-.5	1.25	2.2	0.025
GW	533	1	-.5	1.25	2.2	-.166667	1.25	2.2	0.025
GW	534	1	-.166667	1.25	2.2	.166667	1.25	2.2	0.025
GW	535	1	.166667	1.25	2.2	.5	1.25	2.2	0.025
GW	536	1	.5	1.25	2.2	.833333	1.25	2.2	0.025
GW	537	1	.833333	1.25	2.2	1.167	1.25	2.2	0.025
GW	538	1	1.167	1.25	2.2	1.5	1.25	2.2	0.025
GW	539	1	1.5	1.25	2.2	1.833	1.25	2.2	0.025
GW	540	1	1.833	1.25	2.2	2.167	1.25	2.2	0.025
GW	541	1	2.167	1.25	2.2	2.5	1.25	2.2	0.025
GW	542	1	-2.5	1.25	1.8	-2.167	1.25	1.8	0.025
GW	543	1	-2.167	1.25	1.8	-1.833	1.25	1.8	0.025
GW	544	1	-1.833	1.25	1.8	-1.5	1.25	1.8	0.025
GW	545	1	-1.5	1.25	1.8	-1.167	1.25	1.8	0.025
GW	546	1	-1.167	1.25	1.8	-.833333	1.25	1.8	0.025
GW	547	1	-.833333	1.25	1.8	-.5	1.25	1.8	0.025
GW	548	1	-.5	1.25	1.8	-.166667	1.25	1.8	0.025
GW	549	1	-.166667	1.25	1.8	.166667	1.25	1.8	0.025
GW	550	1	.166667	1.25	1.8	.5	1.25	1.8	0.025
GW	551	1	.5	1.25	1.8	.833333	1.25	1.8	0.025
GW	552	1	.833333	1.25	1.8	1.167	1.25	1.8	0.025
GW	553	1	1.167	1.25	1.8	1.5	1.25	1.8	0.025
GW	554	1	1.5	1.25	1.8	1.833	1.25	1.8	0.025
GW	555	1	1.833	1.25	1.8	2.167	1.25	1.8	0.025
GW	556	1	2.167	1.25	1.8	2.5	1.25	1.8	0.025
GW	557	1	-2.5	1.25	1.4	-2.167	1.25	1.4	0.025
GW	558	1	-2.167	1.25	1.4	-1.833	1.25	1.4	0.025
GW	559	1	-1.833	1.25	1.4	-1.5	1.25	1.4	0.025
GW	560	1	-1.5	1.25	1.4	-1.167	1.25	1.4	0.025
GW	561	1	-1.167	1.25	1.4	-.833333	1.25	1.4	0.025
GW	562	1	-.833333	1.25	1.4	-.5	1.25	1.4	0.025
GW	563	1	-.5	1.25	1.4	-.166667	1.25	1.4	0.025
GW	564	1	-.166667	1.25	1.4	.166667	1.25	1.4	0.025
GW	565	1	.166667	1.25	1.4	.5	1.25	1.4	0.025
GW	566	1	.5	1.25	1.4	.833333	1.25	1.4	0.025
GW	567	1	.833333	1.25	1.4	1.167	1.25	1.4	0.025
GW	568	1	1.167	1.25	1.4	1.5	1.25	1.4	0.025
GW	569	1	1.5	1.25	1.4	1.833	1.25	1.4	0.025
GW	570	1	1.833	1.25	1.4	2.167	1.25	1.4	0.025
GW	571	1	2.167	1.25	1.4	2.5	1.25	1.4	0.025
GW	572	1	-2.5	1.25	1.0	-2.167	1.25	1.0	0.025
GW	573	1	-2.167	1.25	1.0	-1.833	1.25	1.0	0.025
GW	574	1	-1.833	1.25	1.0	-1.5	1.25	1.0	0.025
GW	575	1	-1.5	1.25	1.0	-1.167	1.25	1.0	0.025
GW	576	1	-1.167	1.25	1.0	-.833333	1.25	1.0	0.025
GW	577	1	-.833333	1.25	1.0	-.5	1.25	1.0	0.025
GW	578	1	-.5	1.25	1.0	-.166667	1.25	1.0	0.025
GW	579	1	-.166667	1.25	1.0	.166667	1.25	1.0	0.025
GW	580	1	.166667	1.25	1.0	.5	1.25	1.0	0.025
GW	581	1	.5	1.25	1.0	.833333	1.25	1.0	0.025
GW	582	1	.833333	1.25	1.0	1.167	1.25	1.0	0.025
GW	583	1	1.167	1.25	1.0	1.5	1.25	1.0	0.025
GW	584	1	1.5	1.25	1.0	1.833	1.25	1.0	0.025
GW	585	1	1.833	1.25	1.0	2.167	1.25	1.0	0.025
GW	586	1	2.167	1.25	1.0	2.5	1.25	1.0	0.025
GW	587	1	-2.5	1.25	.6	-2.167	1.25	.6	0.025
GW	588	1	-2.167	1.25	.6	-1.833	1.25	.6	0.025
GW	589	1	-1.833	1.25	.6	-1.5	1.25	.6	0.025
GW	590	1	-1.5	1.25	.6	-1.167	1.25	.6	0.025
GW	591	1	-1.167	1.25	.6	-.833333	1.25	.6	0.025
GW	592	1	-.833333	1.25	.6	-.5	1.25	.6	0.025
GW	593	1	-.5	1.25	.6	-.166667	1.25	.6	0.025
GW	594	1	-.166667	1.25	.6	.166667	1.25	.6	0.025
GW	595	1	.166667	1.25	.6	.5	1.25	.6	0.025
GW	596	1	.5	1.25	.6	.833333	1.25	.6	0.025
GW	597	1	.833333	1.25	.6	1.167	1.25	.6	0.025
GW	598	1	1.167	1.25	.6	1.5	1.25	.6	0.025
GW	599	1	1.5	1.25	.6	1.833	1.25	.6	0.025
GW	600	1	1.833	1.25	.6	2.167	1.25	.6	0.025
GW	601	1	2.167	1.25	.6	2.5	1.25	.6	0.025
GW	602	1	-2.5	1.25	.2	-2.167	1.25	.2	0.025
GW	603	1	-2.167	1.25	.2	-1.833	1.25	.2	0.025
GW	604	1	-1.833	1.25	.2	-1.5	1.25	.2	0.025
GW	605	1	-1.5	1.25	.2	-1.167	1.25	.2	0.025
GW	606	1	-1.167	1.25	.2	-.833333	1.25	.2	0.025
GW	607	1	-.833333	1.25	.2	-.5	1.25	.2	0.025
GW	608	1	-.5	1.25	.2	-.166667	1.25	.2	0.025
GW	609	1	-.166667	1.25	.2	.166667	1.25	.2	0.025
GW	610	1	.166667	1.25	.2	.5	1.25	.2	0.025
GW	611	1	.5	1.25	.2	.833333	1.25	.2	0.025
GW	612	1	.833333	1.25	.2	1.167	1.25	.2	0.025
GW	613	1	1.167	1.25	.2	1.5	1.25	.2	0.025
GW	614	1	1.5	1.25	.2	1.833	1.25	.2	0.025
GW	615	1	1.833	1.25	.2	2.167	1.25	.2	0.025
GW	616	1	2.167	1.25	.2	2.5	1.25	.2	0.025
GW	617	1	-2.5	1.25	-.2	-2.167	1.25	-.2	0.025
GW	618	1	-2.167	1.25	-.2	-1.833	1.25	-.2	0.025
GW	619	1	-1.833	1.25	-.2	-1.5	1.25	-.2	0.025
GW	620	1	-1.5	1.25	-.2	-1.167	1.25	-.2	0.025
GW	621	1	-1.167	1.25	-.2	-.833333	1.25	-.2	0.025
GW	622	1	-.833333	1.25	-.2	-.5	1.25	-.2	0.025
GW	623	1	-.5	1.25	-.2	-.166667	1.25	-.2	0.025
GW	624	1	-.166667	1.25	-.2	.166667	1.25	-.2	0.025
GW	625	1	.166667	1.25	-.2	.5	1.25	-.2	0.025
GW	626	1	.5	1.25	-.2	.833333	1.25	-.2	0.025
GW	627	1	.833333	1.25	-.2	1.167	1.25	-.2	0.025
GW	628	1	1.167	1.25	-.2	1.5	1.25	-.2	0.025
GW	629	1	1.5	1.25	-.2	1.833	1.25	-.2	0.025
GW	630	1	1.833	1.25	-.2	2.167	1.25	-.2	0.025
GW	631	1	2.167	1.25	-.2	2.5	1.25	-.2	0.025
GW	632	1	-2.5	1.25	-.6	-2.167	1.25	-.6	0.025
GW	633	1	-2.167	1.25	-.6	-1.833	1.25	-.6	0.025
GW	634	1	-1.833	1.25	-.6	-1.5	1.25	-.6	0.025
GW	635	1	-1.5	1.25	-.6	-1.167	1.25	-.6	0.025
GW	636	1	-1.167	1.25	-.6	-.833333	1.25	-.6	0.025
GW	637	1	-.833333	1.25	-.6	-.5	1.25	-.6	0.025
GW	638	1	-.5	1.25	-.6	-.166667	1.25	-.6	0.025
GW	639	1	-.166667	1.25	-.6	.166667	1.25	-.6	0.025
GW	640	1	.166667	1.25	-.6	.5	1.25	-.6	0.025
GW	641	1	.5	1.25	-.6	.833333	1.25	-.6	0.025
GW	642	1	.833333	1.25	-.6	1.167	1.25	-.6	0.025
GW	643	1	1.167	1.25	-.6	1.5	1.25	-.6	0.025
GW	644	1	1.5	1.25	-.6	1.833	1.25	-.6	0.025
GW	645	1	1.833	1.25	-.6	2.167	1.25	-.6	0.025